65

C       1.11400000      14.12400000      15.49700000
C       1.77700000      14.43600000      16.88900000
C       2.90400000      13.72500000      19.74700000
C       0.72400000      14.88500000      17.87400100
C      -1.29200000      14.90600000      15.66000000
C      -2.32600000      15.61300000      12.78700000
O      -2.57300000      16.78400000      12.64800000
O      -2.10600000      15.77900000      15.81500000
O       0.23400000      15.98800000      17.89500000
O       2.82400000      14.93200000      19.79000100
O       2.67900000      12.97700000      20.84300000
O       0.32500000      13.92600000      18.74000000
O      -1.47100000      13.66000000      16.16400000
O      -3.20000000      14.75500000      13.35900000
C      -0.01000000      14.99800000      14.85600000
C      -1.07400000      14.90800000      12.32500000
C       3.35500000      12.92300000      18.54400100
C       0.33500000      16.48200000      14.68800000
H       1.25500000      16.60100000      14.13100000
H      -0.46400000      16.99399900      14.17500000
H       0.43700000      16.93400000      15.66200000
C      -1.51900000      13.76000000      11.38300000
H      -2.17900000      13.08000000      11.90000000
H      -0.64700000      13.21900000      11.03400000
C      -0.30500000      14.24100000      13.50200000
H      -0.83100000      13.33500000      13.77400000
H       0.65000000      13.94200000      13.08600000
H       1.93700000      14.11700000      14.79100000
H       0.71700000      13.12100000      15.54500000
C       2.40700000      13.08300000      17.31300000
H       2.97800000      12.72200000      16.46299900
H       1.58400000      12.40000000      17.45800000
C       3.40100000      11.42000000      18.87299900
H       3.72900000      10.87300000      17.99600000
H       4.09000000      11.22400000      19.68100000
H       2.42600000      11.06100000      19.16600000
C       2.39000000      13.65600000      22.09400000
H       2.32600000      12.87500000      22.83099900
H       3.18200000      14.35000000      22.33300000
H       1.45900000      14.19500000      22.02500000
C      -0.63100000      14.31900000      19.76199900
H      -0.82700000      13.42400000      20.32600000
H      -0.19800000      15.08800000      20.38400100
H      -1.53100000      14.70000000      19.30800100
C      -4.44900000      15.31400000      13.86500000
H      -5.04800000      14.46200000      14.14300000
H      -4.23100000      15.93500000      14.71600000
H      -4.93500000      15.89100000      13.09600000
C      -2.73700000      13.34500000      16.79800000
H      -2.57100000      12.42600000      17.33400000
H      -3.03200000      14.13800000      17.46699900
H      -3.49400000      13.21300000      16.04100000
C      -0.21100000      15.88800000      11.51600000
H       0.07800000      16.75200100      12.09000000
H       0.68300000      15.38100000      11.17000000
H      -0.76200000      16.23600000      10.65200000
C       4.79700000      13.39200000      18.22900000
H       5.45400000      13.15300000      19.05900000
H       5.16200000      12.87200000      17.35100000
H       4.84500000      14.45500000      18.05299900
C       2.80700000      15.57300000      16.74000000
H       3.59800000      15.26100000      16.06800100
H       2.34300000      16.45599900      16.33700000
H       3.22100000      15.82000000      17.70299900
H      -2.03600000      14.16000000      10.51700000
